LTspice 24.0.12 for Windows
Circuit: * C:\Users\alfaw\Documents\LTspice\Spectrum Analyzer\Draft1.asc
Start Time: Tue May 13 19:53:55 2025
solver = Normal
Maximum thread count: 22
tnom = 27
temp = 27
method = modified trap
Direct Newton iteration for .op point succeeded.
Total elapsed time: 379.075 seconds.

