LTspice 24.0.12 for Windows
Circuit: * C:\Users\alfaw\Documents\Class Files\ELEN 1201\Draft2.asc
Start Time: Wed Apr 30 15:45:15 2025
solver = Normal
Maximum thread count: 22
tnom = 27
temp = 27
method = modified trap
Direct Newton iteration for .op point succeeded.
Total elapsed time: 0.435 seconds.

