LTspice 24.0.12 for Windows
Circuit: * C:\Users\alfaw\Documents\Class Files\ELEN 1201\Draft5.asc
Start Time: Sun May  4 15:27:25 2025
solver = Normal
Maximum thread count: 22
tnom = 27
temp = 27
method = modified trap
Direct Newton iteration for .op point succeeded.
Total elapsed time: 0.464 seconds.

