LTspice 24.0.12 for Windows
Circuit: * C:\Users\alfaw\Documents\LTspice\Spectrum Analyzer\Voltage Reference Test.asc
Start Time: Tue May 13 23:05:15 2025
solver = Normal
Maximum thread count: 22
tnom = 27
temp = 27
method = modified trap
Direct Newton iteration for .op point succeeded.
Total elapsed time: 348.758 seconds.

